@<TRIPOS>MOLECULE
J7
   74    77     1     0     0
SMALL
No Charge or Current Charge


@<TRIPOS>ATOM
      1 C1          3.5400    1.4200    0.0000 c3        1 J7       0.110300
      2 H36         3.2400    0.6020    0.6720 hx        1 J7       0.110700
      3 H37         3.3720    1.1170   -1.0440 hx        1 J7       0.110700
      4 C2          5.0140    1.7840    0.2220 c3        1 J7      -0.098400
      5 H34         5.2890    1.7980    1.2870 hc        1 J7       0.082700
      6 H35         5.7000    1.1200   -0.3250 hc        1 J7       0.082700
      7 C3          4.9490    3.2090   -0.3920 c3        1 J7      -0.098400
      8 H32         5.7660    3.8240    0.0080 hc        1 J7       0.082700
      9 H33         5.0380    3.1460   -1.4870 hc        1 J7       0.082700
     10 C4          3.6160    3.8250   -0.0220 c3        1 J7       0.110300
     11 H30         3.1920    4.3840   -0.8700 hx        1 J7       0.110700
     12 H31         3.7200    4.4960    0.8430 hx        1 J7       0.110700
     13 N5          2.7750    2.6590    0.3130 n4        1 J7      -0.682400
     14 H29         2.5660    2.6740    1.2990 hn        1 J7       0.482800
     15 C6          1.5170    2.7150   -0.4300 c3        1 J7       0.103800
     16 H27         1.7440    2.7160   -1.5060 hx        1 J7       0.099200
     17 H28         0.9940    3.6460   -0.1650 hx        1 J7       0.099200
     18 C7          0.5930    1.5310   -0.1260 c3        1 J7       0.099400
     19 H25         0.9230    0.6390   -0.6780 h1        1 J7       0.091700
     20 H26        -0.4430    1.7750   -0.4070 h1        1 J7       0.091700
     21 O8          0.6800    1.3030    1.2750 os        1 J7      -0.361900
     22 C9          0.2530    0.0630    1.7850 ca        1 J7       0.082100
     23 C12         0.6820   -0.2140    3.0750 ca        1 J7      -0.133500
     24 C13         0.2590   -1.4040    3.6830 ca        1 J7      -0.111500
     25 H21         0.5010   -1.5630    4.7280 ha        1 J7       0.153500
     26 H22         1.3320    0.4760    3.6030 ha        1 J7       0.139000
     27 C10        -0.4930   -0.8740    1.1160 ca        1 J7      -0.133500
     28 H24        -0.8040   -0.6780    0.0960 ha        1 J7       0.139000
     29 C11        -0.8570   -2.0680    1.7230 ca        1 J7      -0.111500
     30 H23        -1.4720   -2.7750    1.1760 ha        1 J7       0.153500
     31 C14        -0.4480   -2.3790    3.0230 ca        1 J7       0.132600
     32 N15        -0.9300   -3.5590    3.5270 nh        1 J7      -0.714300
     33 H20        -1.7370   -3.9830    3.0480 hn        1 J7       0.451800
     34 C16        -0.4370   -4.2050    4.5900 ca        1 J7       0.893900
     35 N18        -1.2280   -5.2120    5.0280 nb        1 J7      -0.747000
     36 C19        -0.7570   -5.9530    6.1250 ca        1 J7       0.488200
     37 C20         0.5010   -5.7220    6.7190 ca        1 J7      -0.386900
     38 C21         0.9040   -6.5730    7.8600 c3        1 J7      -0.037800
     39 H16         0.1780   -6.4570    8.6800 hc        1 J7       0.048700
     40 H17         0.9310   -7.6260    7.5410 hc        1 J7       0.048700
     41 H18         1.9020   -6.2700    8.2090 hc        1 J7       0.048700
     42 H19        -1.3880   -6.7350    6.5300 h4        1 J7       0.040100
     43 N17         0.7740   -3.9590    5.1260 nb        1 J7      -0.791000
     44 C22         1.2690   -4.6760    6.1540 ca        1 J7       0.687200
     45 N23         2.4460   -4.4490    6.7400 nh        1 J7      -0.728300
     46 H15         2.6610   -4.9680    7.6030 hn        1 J7       0.436800
     47 C24         3.4110   -3.5490    6.2590 ca        1 J7       0.133600
     48 C26         4.5080   -3.4080    7.1200 ca        1 J7      -0.098000
     49 C27         5.5860   -2.5780    6.8200 ca        1 J7      -0.127000
     50 C28         5.6070   -1.9260    5.6090 ca        1 J7      -0.049000
     51 H11         6.4510   -1.2970    5.3500 ha        1 J7       0.157000
     52 H12         6.3960   -2.4490    7.5290 ha        1 J7       0.155000
     53 H13         4.5180   -3.9630    8.0530 ha        1 J7       0.150000
     54 C25         3.4370   -2.8400    5.0290 ca        1 J7      -0.002000
     55 H14         2.6000   -2.8970    4.3420 ha        1 J7       0.161000
     56 C29         4.5600   -2.0660    4.7200 ca        1 J7      -0.389500
     57 S30         4.5610   -1.1130    3.2150 sy        1 J7       1.518200
     58 O31         5.9560   -1.1800    2.6430 o         1 J7      -0.707300
     59 O32         3.8870    0.1890    3.5810 o         1 J7      -0.707300
     60 N33         3.4970   -1.7950    2.2550 n3        1 J7      -0.918100
     61 H10         2.5290   -1.4410    2.2490 hn        1 J7       0.464800
     62 C34         3.8510   -2.9120    1.3770 c3        1 J7       0.256200
     63 C36         4.6550   -2.4840    0.1430 c3        1 J7      -0.117433
     64 H4          5.6470   -2.1290    0.4580 hc        1 J7       0.053589
     65 H5          4.7700   -3.3430   -0.5350 hc        1 J7       0.053589
     66 H6          4.1240   -1.6750   -0.3770 hc        1 J7       0.053589
     67 C37         2.4920   -3.3990    0.8790 c3        1 J7      -0.117433
     68 H1          2.6360   -4.2420    0.1870 hc        1 J7       0.053589
     69 H2          1.8830   -3.7260    1.7330 hc        1 J7       0.053589
     70 H3          1.9790   -2.5790    0.3550 hc        1 J7       0.053589
     71 C35         4.5970   -4.0650    2.1250 c3        1 J7      -0.117433
     72 H7          5.5290   -3.6750    2.5620 hc        1 J7       0.053589
     73 H8          3.9540   -4.4600    2.9250 hc        1 J7       0.053589
     74 H9          4.8340   -4.8700    1.4130 hc        1 J7       0.053589
@<TRIPOS>BOND
     1    2    1 1   
     2    3    1 1   
     3    4    1 1   
     4    5    4 1   
     5    6    4 1   
     6    7    4 1   
     7    8    7 1   
     8    9    7 1   
     9   10    7 1   
    10   11   10 1   
    11   12   10 1   
    12   13   10 1   
    13   14   13 1   
    14   15   13 1   
    15   16   15 1   
    16   17   15 1   
    17   18   15 1   
    18   19   18 1   
    19   20   18 1   
    20   21   18 1   
    21   22   21 1   
    22   23   22 ar  
    23   24   23 ar  
    24   25   24 1   
    25   26   23 1   
    26   27   22 ar  
    27   28   27 1   
    28   29   27 ar  
    29   30   29 1   
    30   31   29 ar  
    31   32   31 1   
    32   33   32 1   
    33   34   32 1   
    34   35   34 ar  
    35   36   35 ar  
    36   37   36 ar  
    37   38   37 1   
    38   39   38 1   
    39   40   38 1   
    40   41   38 1   
    41   42   36 1   
    42   43   34 ar  
    43   44   43 ar  
    44   45   44 1   
    45   46   45 1   
    46   47   45 1   
    47   48   47 ar  
    48   49   48 ar  
    49   50   49 ar  
    50   51   50 1   
    51   52   49 1   
    52   53   48 1   
    53   54   47 ar  
    54   55   54 1   
    55   56   54 ar  
    56   57   56 1   
    57   58   57 2   
    58   59   57 2   
    59   60   57 1   
    60   61   60 1   
    61   62   60 1   
    62   63   62 1   
    63   64   63 1   
    64   65   63 1   
    65   66   63 1   
    66   67   62 1   
    67   68   67 1   
    68   69   67 1   
    69   70   67 1   
    70   71   62 1   
    71   72   71 1   
    72   73   71 1   
    73   74   71 1   
    74   13    1 1   
    75   31   24 ar  
    76   44   37 ar  
    77   56   50 ar  
@<TRIPOS>SUBSTRUCTURE
     1 J7          1 TEMP              0 ****  ****    0 ROOT
